*SPEF "ieee 1481-1999"
*DESIGN "analog_async_up_down"
*DATE "11:11:11 Fri 11 11, 1111"
*VENDOR "OpenRCX"
*PROGRAM "Parallel Extraction"
*VERSION "1.0"
*DESIGN_FLOW "NAME_SCOPE LOCAL" "PIN_CAP NONE"
*DIVIDER /
*DELIMITER :
*BUS_DELIMITER []
*T_UNIT 1 NS
*C_UNIT 1 PF
*R_UNIT 1 OHM
*L_UNIT 1 HENRY

*NAME_MAP
*1 Vin
*3 out
*4 vref
*5 _1_
*6 _3_
*7 PHY_0
*8 PHY_1
*9 PHY_2
*10 PHY_3
*11 PHY_4
*12 PHY_5
*13 PHY_6
*14 PHY_7
*15 PHY_8
*16 PHY_9
*17 PHY_10
*18 PHY_11
*19 PHY_12
*20 PHY_13
*21 PHY_14
*22 PHY_15
*23 PHY_16
*24 PHY_17
*25 PHY_18
*26 PHY_19
*27 PHY_20
*28 PHY_21
*29 PHY_22
*30 PHY_23
*31 PHY_24
*32 PHY_25
*33 PHY_26
*34 PHY_27
*35 PHY_28
*36 PHY_29
*37 PHY_30
*38 PHY_31
*39 PHY_32
*40 PHY_33
*41 PHY_34
*42 PHY_35
*43 PHY_36
*44 PHY_37
*45 PHY_38
*46 PHY_39
*47 PHY_40
*48 PHY_41
*49 PHY_42
*50 PHY_43
*51 PHY_44
*52 PHY_45
*53 PHY_46
*54 PHY_47
*55 PHY_48
*56 PHY_49
*57 PHY_50
*58 PHY_51
*59 PHY_52
*60 PHY_53
*61 PHY_54
*62 PHY_55
*63 PHY_56
*64 PHY_57
*65 PHY_58
*66 PHY_59
*67 PHY_60
*68 PHY_61
*69 PHY_62
*70 PHY_63
*71 PHY_64
*72 PHY_65
*73 PHY_66
*74 PHY_67
*75 PHY_68
*76 PHY_69
*77 PHY_70
*78 PHY_71
*79 PHY_72
*80 PHY_73
*81 PHY_74
*82 PHY_75
*83 PHY_76
*84 PHY_77
*85 PHY_78
*86 PHY_79
*87 PHY_80
*88 PHY_81
*89 PHY_82
*90 PHY_83
*91 PHY_84
*92 PHY_85
*93 PHY_86
*94 PHY_87
*95 PHY_88
*96 PHY_89
*97 PHY_90
*98 PHY_91
*99 PHY_92
*100 PHY_93
*101 PHY_94
*102 PHY_95
*103 PHY_96
*104 PHY_97
*105 PHY_98
*106 PHY_99
*107 PHY_100
*108 PHY_101
*109 PHY_102
*110 PHY_103
*111 PHY_104
*112 PHY_105
*113 PHY_106
*114 PHY_107
*115 PHY_108
*116 PHY_109
*117 PHY_110
*118 PHY_111
*119 PHY_112
*120 PHY_113
*121 PHY_114
*122 PHY_115
*123 PHY_116
*124 PHY_117
*125 PHY_118
*126 PHY_119
*127 PHY_120
*128 PHY_121
*129 PHY_122
*130 PHY_123
*131 PHY_124
*132 PHY_125
*133 PHY_126
*134 PHY_127
*135 PHY_128
*136 PHY_129
*137 PHY_130
*138 PHY_131
*139 PHY_132
*140 PHY_133
*141 PHY_134
*142 PHY_135
*143 PHY_136
*144 PHY_137
*145 PHY_138
*146 PHY_139
*147 PHY_140
*148 PHY_141
*149 PHY_142
*150 PHY_143
*151 PHY_144
*152 PHY_145
*153 PHY_146
*154 PHY_147
*155 PHY_148
*156 PHY_149
*157 PHY_150
*158 PHY_151
*159 PHY_152
*160 PHY_153
*161 PHY_154
*162 PHY_155
*163 PHY_156
*164 PHY_157
*165 PHY_158
*166 PHY_159
*167 PHY_160
*168 PHY_161
*169 PHY_162
*170 PHY_163
*171 PHY_164
*172 PHY_165
*173 PHY_166
*174 PHY_167
*175 PHY_168
*176 PHY_169
*177 PHY_170
*178 PHY_171
*179 PHY_172
*180 PHY_173
*181 PHY_174
*182 PHY_175
*183 PHY_176
*184 PHY_177
*185 PHY_178
*186 PHY_179
*187 PHY_180
*188 PHY_181
*189 PHY_182
*190 PHY_183
*191 PHY_184
*192 PHY_185
*193 PHY_186
*194 PHY_187
*195 PHY_188
*196 PHY_189
*197 PHY_190
*198 PHY_191
*199 PHY_192
*200 PHY_193
*201 PHY_194
*202 PHY_195
*203 PHY_196
*204 PHY_197
*205 PHY_198
*206 PHY_199
*207 PHY_200
*208 PHY_201
*209 PHY_202
*210 PHY_203
*211 PHY_204
*212 PHY_205
*213 PHY_206
*214 PHY_207
*215 PHY_208
*216 PHY_209
*217 PHY_210
*218 PHY_211
*219 PHY_212
*220 PHY_213
*221 PHY_214
*222 PHY_215
*223 PHY_216
*224 PHY_217
*225 PHY_218
*226 PHY_219
*227 PHY_220
*228 PHY_221
*229 PHY_222
*230 PHY_223
*231 PHY_224
*232 PHY_225
*233 PHY_226
*234 PHY_227
*235 PHY_228
*236 PHY_229
*237 PHY_230
*238 PHY_231
*239 PHY_232
*240 PHY_233
*241 PHY_234
*242 PHY_235
*243 PHY_236
*244 PHY_237
*245 PHY_238
*246 PHY_239
*247 PHY_240
*248 PHY_241
*249 PHY_242
*250 PHY_243
*251 PHY_244
*252 PHY_245
*253 PHY_246
*254 PHY_247
*255 PHY_248
*256 PHY_249
*257 PHY_250
*258 PHY_251
*259 PHY_252
*260 PHY_253
*261 PHY_254
*262 PHY_255
*263 PHY_256
*264 PHY_257
*265 PHY_258
*266 PHY_259
*267 PHY_260
*268 PHY_261
*269 PHY_262
*270 PHY_263
*271 PHY_264
*272 PHY_265
*273 PHY_266
*274 PHY_267
*275 PHY_268
*276 PHY_269
*277 PHY_270
*278 PHY_271
*279 PHY_272
*280 PHY_273
*281 PHY_274
*282 PHY_275
*283 PHY_276
*284 PHY_277
*285 PHY_278
*286 PHY_279
*287 PHY_280
*288 PHY_281
*289 PHY_282
*290 PHY_283
*291 PHY_284
*292 PHY_285
*293 PHY_286
*294 PHY_287
*295 PHY_288
*296 PHY_289
*297 PHY_290
*298 PHY_291
*299 TAP_292
*300 TAP_293
*301 TAP_294
*302 TAP_295
*303 TAP_296
*304 TAP_297
*305 TAP_298
*306 TAP_299
*307 TAP_300
*308 TAP_301
*309 TAP_302
*310 TAP_303
*311 TAP_304
*312 TAP_305
*313 TAP_306
*314 TAP_307
*315 TAP_308
*316 TAP_309
*317 TAP_310
*318 TAP_311
*319 TAP_312
*320 TAP_313
*321 TAP_314
*322 TAP_315
*323 TAP_316
*324 TAP_317
*325 TAP_318
*326 TAP_319
*327 TAP_320
*328 TAP_321
*329 TAP_322
*330 TAP_323
*331 TAP_324
*332 TAP_325
*333 TAP_326
*334 TAP_327
*335 TAP_328
*336 TAP_329
*337 TAP_330
*338 TAP_331
*339 TAP_332
*340 TAP_333
*341 TAP_334
*342 TAP_335
*343 TAP_336
*344 TAP_337
*345 TAP_338
*346 TAP_339
*347 TAP_340
*348 TAP_341
*349 TAP_342
*350 TAP_343
*351 TAP_344
*352 TAP_345
*353 TAP_346
*354 TAP_347
*355 TAP_348
*356 TAP_349
*357 TAP_350
*358 TAP_351
*359 TAP_352
*360 TAP_353
*361 TAP_354
*362 TAP_355
*363 TAP_356
*364 TAP_357
*365 TAP_358
*366 TAP_359
*367 TAP_360
*368 TAP_361
*369 TAP_362
*370 TAP_363
*371 TAP_364
*372 TAP_365
*373 TAP_366
*374 TAP_367
*375 TAP_368
*376 TAP_369
*377 TAP_370
*378 TAP_371
*379 TAP_372
*380 TAP_373
*381 TAP_374
*382 TAP_375
*383 TAP_376
*384 TAP_377
*385 TAP_378
*386 TAP_379
*387 TAP_380
*388 TAP_381
*389 TAP_382
*390 TAP_383
*391 TAP_384
*392 TAP_385
*393 TAP_386
*394 TAP_387
*395 TAP_388
*396 TAP_389
*397 TAP_390
*398 TAP_391
*399 TAP_392
*400 TAP_393
*401 TAP_394
*402 TAP_395
*403 TAP_396
*404 TAP_397
*405 TAP_398
*406 TAP_399
*407 TAP_400
*408 TAP_401
*409 TAP_402
*410 TAP_403
*411 TAP_404
*412 TAP_405
*413 TAP_406
*414 TAP_407
*415 TAP_408
*416 TAP_409
*417 TAP_410
*418 TAP_411
*419 TAP_412
*420 TAP_413
*421 TAP_414
*422 TAP_415
*423 TAP_416
*424 TAP_417
*425 TAP_418
*426 TAP_419
*427 TAP_420
*428 TAP_421
*429 TAP_422
*430 TAP_423
*431 TAP_424
*432 TAP_425
*433 TAP_426
*434 TAP_427
*435 TAP_428
*436 TAP_429
*437 TAP_430
*438 TAP_431
*439 TAP_432
*440 TAP_433
*441 TAP_434
*442 TAP_435
*443 TAP_436
*444 TAP_437
*445 TAP_438
*446 TAP_439
*447 TAP_440
*448 TAP_441
*449 TAP_442
*450 TAP_443
*451 TAP_444
*452 TAP_445
*453 TAP_446
*454 TAP_447
*455 TAP_448
*456 TAP_449
*457 TAP_450
*458 TAP_451
*459 TAP_452
*460 TAP_453
*461 TAP_454
*462 TAP_455
*463 TAP_456
*464 TAP_457
*465 TAP_458
*466 TAP_459
*467 TAP_460
*468 TAP_461
*469 TAP_462
*470 TAP_463
*471 TAP_464
*472 TAP_465
*473 TAP_466
*474 TAP_467
*475 TAP_468
*476 TAP_469
*477 TAP_470
*478 TAP_471
*479 TAP_472
*480 TAP_473
*481 TAP_474
*482 TAP_475
*483 TAP_476
*484 TAP_477
*485 TAP_478
*486 TAP_479
*487 TAP_480
*488 TAP_481
*489 TAP_482
*490 TAP_483
*491 TAP_484
*492 TAP_485
*493 TAP_486
*494 TAP_487
*495 TAP_488
*496 TAP_489
*497 TAP_490
*498 TAP_491
*499 TAP_492
*500 TAP_493
*501 TAP_494
*502 TAP_495
*503 TAP_496
*504 TAP_497
*505 TAP_498
*506 TAP_499
*507 TAP_500
*508 TAP_501
*509 TAP_502
*510 TAP_503
*511 TAP_504
*512 TAP_505
*513 TAP_506
*514 TAP_507
*515 TAP_508
*516 TAP_509
*517 TAP_510
*518 TAP_511
*519 TAP_512
*520 TAP_513
*521 TAP_514
*522 TAP_515
*523 TAP_516
*524 TAP_517
*525 TAP_518
*526 TAP_519
*527 TAP_520
*528 TAP_521
*529 TAP_522
*530 TAP_523
*531 TAP_524
*532 TAP_525
*533 TAP_526
*534 TAP_527
*535 TAP_528
*536 TAP_529
*537 TAP_530
*538 TAP_531
*539 TAP_532
*540 TAP_533
*541 TAP_534
*542 TAP_535
*543 TAP_536
*544 TAP_537
*545 TAP_538
*546 TAP_539
*547 TAP_540
*548 TAP_541
*549 TAP_542
*550 TAP_543
*551 TAP_544
*552 TAP_545
*553 TAP_546
*554 TAP_547
*555 TAP_548
*556 TAP_549
*557 TAP_550
*558 TAP_551
*559 TAP_552
*560 TAP_553
*561 TAP_554
*562 TAP_555
*563 TAP_556
*564 TAP_557
*565 TAP_558
*566 TAP_559
*567 TAP_560
*568 FILLER_0_4
*569 FILLER_0_12
*570 FILLER_0_20
*571 FILLER_0_28
*572 FILLER_0_31
*573 FILLER_0_39
*574 FILLER_0_47
*575 FILLER_0_55
*576 FILLER_0_59
*577 FILLER_0_61
*578 FILLER_0_69
*579 FILLER_0_77
*580 FILLER_0_85
*581 FILLER_0_89
*582 FILLER_0_91
*583 FILLER_0_99
*584 FILLER_0_107
*585 FILLER_0_115
*586 FILLER_0_119
*587 FILLER_0_121
*588 FILLER_0_129
*589 FILLER_0_137
*590 FILLER_0_145
*591 FILLER_0_149
*592 FILLER_0_151
*593 FILLER_0_159
*594 FILLER_0_167
*595 FILLER_0_175
*596 FILLER_0_179
*597 FILLER_0_181
*598 FILLER_0_189
*599 FILLER_0_197
*600 FILLER_0_205
*601 FILLER_0_209
*602 FILLER_0_211
*603 FILLER_0_219
*604 FILLER_0_227
*605 FILLER_0_235
*606 FILLER_0_239
*607 FILLER_0_241
*608 FILLER_0_249
*609 FILLER_0_257
*610 FILLER_0_265
*611 FILLER_0_269
*612 FILLER_0_271
*613 FILLER_0_279
*614 FILLER_0_287
*615 FILLER_0_295
*616 FILLER_0_299
*617 FILLER_0_301
*618 FILLER_0_309
*619 FILLER_0_317
*620 FILLER_0_325
*621 FILLER_0_329
*622 FILLER_0_331
*623 FILLER_0_339
*624 FILLER_0_347
*625 FILLER_0_351
*626 FILLER_0_353
*627 FILLER_1_4
*628 FILLER_1_9
*629 FILLER_1_17
*630 FILLER_1_25
*631 FILLER_1_33
*632 FILLER_1_41
*633 FILLER_1_49
*634 FILLER_1_57
*635 FILLER_1_59
*636 FILLER_1_61
*637 FILLER_1_69
*638 FILLER_1_77
*639 FILLER_1_85
*640 FILLER_1_93
*641 FILLER_1_101
*642 FILLER_1_109
*643 FILLER_1_117
*644 FILLER_1_119
*645 FILLER_1_121
*646 FILLER_1_129
*647 FILLER_1_137
*648 FILLER_1_145
*649 FILLER_1_153
*650 FILLER_1_161
*651 FILLER_1_169
*652 FILLER_1_177
*653 FILLER_1_179
*654 FILLER_1_181
*655 FILLER_1_189
*656 FILLER_1_197
*657 FILLER_1_205
*658 FILLER_1_213
*659 FILLER_1_221
*660 FILLER_1_229
*661 FILLER_1_237
*662 FILLER_1_239
*663 FILLER_1_241
*664 FILLER_1_249
*665 FILLER_1_257
*666 FILLER_1_265
*667 FILLER_1_273
*668 FILLER_1_281
*669 FILLER_1_289
*670 FILLER_1_297
*671 FILLER_1_299
*672 FILLER_1_301
*673 FILLER_1_309
*674 FILLER_1_317
*675 FILLER_1_325
*676 FILLER_1_333
*677 FILLER_1_341
*678 FILLER_1_349
*679 FILLER_1_353
*680 FILLER_2_4
*681 FILLER_2_12
*682 FILLER_2_20
*683 FILLER_2_28
*684 FILLER_2_31
*685 FILLER_2_39
*686 FILLER_2_47
*687 FILLER_2_55
*688 FILLER_2_63
*689 FILLER_2_71
*690 FILLER_2_79
*691 FILLER_2_87
*692 FILLER_2_89
*693 FILLER_2_91
*694 FILLER_2_99
*695 FILLER_2_107
*696 FILLER_2_115
*697 FILLER_2_123
*698 FILLER_2_131
*699 FILLER_2_139
*700 FILLER_2_147
*701 FILLER_2_149
*702 FILLER_2_151
*703 FILLER_2_159
*704 FILLER_2_167
*705 FILLER_2_175
*706 FILLER_2_183
*707 FILLER_2_191
*708 FILLER_2_199
*709 FILLER_2_207
*710 FILLER_2_209
*711 FILLER_2_211
*712 FILLER_2_219
*713 FILLER_2_227
*714 FILLER_2_235
*715 FILLER_2_243
*716 FILLER_2_251
*717 FILLER_2_259
*718 FILLER_2_267
*719 FILLER_2_269
*720 FILLER_2_271
*721 FILLER_2_279
*722 FILLER_2_287
*723 FILLER_2_295
*724 FILLER_2_303
*725 FILLER_2_311
*726 FILLER_2_319
*727 FILLER_2_327
*728 FILLER_2_329
*729 FILLER_2_331
*730 FILLER_2_339
*731 FILLER_2_347
*732 FILLER_2_351
*733 FILLER_2_353
*734 FILLER_3_4
*735 FILLER_3_12
*736 FILLER_3_20
*737 FILLER_3_28
*738 FILLER_3_36
*739 FILLER_3_44
*740 FILLER_3_52
*741 FILLER_3_61
*742 FILLER_3_69
*743 FILLER_3_77
*744 FILLER_3_85
*745 FILLER_3_93
*746 FILLER_3_101
*747 FILLER_3_109
*748 FILLER_3_117
*749 FILLER_3_119
*750 FILLER_3_121
*751 FILLER_3_129
*752 FILLER_3_137
*753 FILLER_3_145
*754 FILLER_3_153
*755 FILLER_3_161
*756 FILLER_3_169
*757 FILLER_3_177
*758 FILLER_3_179
*759 FILLER_3_181
*760 FILLER_3_189
*761 FILLER_3_197
*762 FILLER_3_205
*763 FILLER_3_213
*764 FILLER_3_221
*765 FILLER_3_229
*766 FILLER_3_237
*767 FILLER_3_239
*768 FILLER_3_241
*769 FILLER_3_249
*770 FILLER_3_257
*771 FILLER_3_265
*772 FILLER_3_273
*773 FILLER_3_281
*774 FILLER_3_289
*775 FILLER_3_297
*776 FILLER_3_299
*777 FILLER_3_301
*778 FILLER_3_309
*779 FILLER_3_317
*780 FILLER_3_325
*781 FILLER_3_333
*782 FILLER_3_341
*783 FILLER_3_349
*784 FILLER_3_353
*785 FILLER_4_4
*786 FILLER_4_12
*787 FILLER_4_20
*788 FILLER_4_28
*789 FILLER_4_31
*790 FILLER_4_39
*791 FILLER_4_47
*792 FILLER_4_55
*793 FILLER_4_63
*794 FILLER_4_71
*795 FILLER_4_79
*796 FILLER_4_87
*797 FILLER_4_89
*798 FILLER_4_91
*799 FILLER_4_99
*800 FILLER_4_107
*801 FILLER_4_115
*802 FILLER_4_123
*803 FILLER_4_131
*804 FILLER_4_139
*805 FILLER_4_147
*806 FILLER_4_149
*807 FILLER_4_151
*808 FILLER_4_159
*809 FILLER_4_167
*810 FILLER_4_175
*811 FILLER_4_183
*812 FILLER_4_191
*813 FILLER_4_199
*814 FILLER_4_207
*815 FILLER_4_209
*816 FILLER_4_211
*817 FILLER_4_219
*818 FILLER_4_227
*819 FILLER_4_235
*820 FILLER_4_243
*821 FILLER_4_251
*822 FILLER_4_259
*823 FILLER_4_267
*824 FILLER_4_269
*825 FILLER_4_271
*826 FILLER_4_279
*827 FILLER_4_287
*828 FILLER_4_295
*829 FILLER_4_303
*830 FILLER_4_311
*831 FILLER_4_319
*832 FILLER_4_327
*833 FILLER_4_329
*834 FILLER_4_331
*835 FILLER_4_339
*836 FILLER_4_347
*837 FILLER_4_351
*838 FILLER_4_353
*839 FILLER_5_4
*840 FILLER_5_12
*841 FILLER_5_20
*842 FILLER_5_28
*843 FILLER_5_31
*844 FILLER_5_39
*845 FILLER_5_47
*846 FILLER_5_55
*847 FILLER_5_59
*848 FILLER_5_61
*849 FILLER_5_69
*850 FILLER_5_77
*851 FILLER_5_85
*852 FILLER_5_89
*853 FILLER_5_91
*854 FILLER_5_99
*855 FILLER_5_107
*856 FILLER_5_115
*857 FILLER_5_119
*858 FILLER_5_121
*859 FILLER_5_129
*860 FILLER_5_137
*861 FILLER_5_145
*862 FILLER_5_149
*863 FILLER_5_151
*864 FILLER_5_159
*865 FILLER_5_167
*866 FILLER_5_175
*867 FILLER_5_179
*868 FILLER_5_181
*869 FILLER_5_189
*870 FILLER_5_197
*871 FILLER_5_205
*872 FILLER_5_209
*873 FILLER_5_211
*874 FILLER_5_219
*875 FILLER_5_227
*876 FILLER_5_235
*877 FILLER_5_239
*878 FILLER_5_241
*879 FILLER_5_249
*880 FILLER_5_257
*881 FILLER_5_265
*882 FILLER_5_269
*883 FILLER_5_271
*884 FILLER_5_279
*885 FILLER_5_287
*886 FILLER_5_295
*887 FILLER_5_299
*888 FILLER_5_301
*889 FILLER_5_309
*890 FILLER_5_317
*891 FILLER_5_325
*892 FILLER_5_329
*893 FILLER_5_331
*894 FILLER_5_339
*895 FILLER_5_347
*896 FILLER_5_351
*897 FILLER_5_353
*898 FILLER_6_4
*899 FILLER_6_12
*900 FILLER_6_20
*901 FILLER_6_28
*902 FILLER_6_31
*903 FILLER_6_35
*904 FILLER_6_223
*905 FILLER_6_231
*906 FILLER_6_239
*907 FILLER_6_247
*908 FILLER_6_250
*909 FILLER_6_258
*910 FILLER_6_266
*911 FILLER_6_274
*912 FILLER_6_282
*913 FILLER_6_290
*914 FILLER_6_298
*915 FILLER_6_306
*916 FILLER_6_308
*917 FILLER_6_310
*918 FILLER_6_318
*919 FILLER_6_326
*920 FILLER_6_334
*921 FILLER_6_342
*922 FILLER_6_350
*923 FILLER_7_4
*924 FILLER_7_12
*925 FILLER_7_20
*926 FILLER_7_28
*927 FILLER_7_223
*928 FILLER_7_231
*929 FILLER_7_239
*930 FILLER_7_247
*931 FILLER_7_255
*932 FILLER_7_263
*933 FILLER_7_271
*934 FILLER_7_280
*935 FILLER_7_288
*936 FILLER_7_296
*937 FILLER_7_304
*938 FILLER_7_312
*939 FILLER_7_320
*940 FILLER_7_328
*941 FILLER_7_336
*942 FILLER_7_338
*943 FILLER_7_340
*944 FILLER_7_348
*945 FILLER_7_352
*946 FILLER_8_4
*947 FILLER_8_12
*948 FILLER_8_20
*949 FILLER_8_28
*950 FILLER_8_31
*951 FILLER_8_35
*952 FILLER_8_223
*953 FILLER_8_231
*954 FILLER_8_239
*955 FILLER_8_247
*956 FILLER_8_250
*957 FILLER_8_258
*958 FILLER_8_266
*959 FILLER_8_274
*960 FILLER_8_282
*961 FILLER_8_290
*962 FILLER_8_298
*963 FILLER_8_306
*964 FILLER_8_308
*965 FILLER_8_310
*966 FILLER_8_318
*967 FILLER_8_326
*968 FILLER_8_334
*969 FILLER_8_342
*970 FILLER_8_350
*971 FILLER_9_4
*972 FILLER_9_12
*973 FILLER_9_20
*974 FILLER_9_28
*975 FILLER_9_223
*976 FILLER_9_231
*977 FILLER_9_239
*978 FILLER_9_247
*979 FILLER_9_255
*980 FILLER_9_263
*981 FILLER_9_271
*982 FILLER_9_280
*983 FILLER_9_288
*984 FILLER_9_296
*985 FILLER_9_304
*986 FILLER_9_312
*987 FILLER_9_320
*988 FILLER_9_328
*989 FILLER_9_336
*990 FILLER_9_338
*991 FILLER_9_340
*992 FILLER_9_348
*993 FILLER_9_352
*994 FILLER_10_4
*995 FILLER_10_12
*996 FILLER_10_20
*997 FILLER_10_28
*998 FILLER_10_31
*999 FILLER_10_35
*1000 FILLER_10_223
*1001 FILLER_10_231
*1002 FILLER_10_239
*1003 FILLER_10_247
*1004 FILLER_10_250
*1005 FILLER_10_258
*1006 FILLER_10_266
*1007 FILLER_10_274
*1008 FILLER_10_282
*1009 FILLER_10_290
*1010 FILLER_10_298
*1011 FILLER_10_306
*1012 FILLER_10_308
*1013 FILLER_10_310
*1014 FILLER_10_318
*1015 FILLER_10_326
*1016 FILLER_10_334
*1017 FILLER_10_342
*1018 FILLER_10_350
*1019 FILLER_11_4
*1020 FILLER_11_12
*1021 FILLER_11_20
*1022 FILLER_11_28
*1023 FILLER_11_223
*1024 FILLER_11_231
*1025 FILLER_11_239
*1026 FILLER_11_247
*1027 FILLER_11_255
*1028 FILLER_11_263
*1029 FILLER_11_271
*1030 FILLER_11_280
*1031 FILLER_11_288
*1032 FILLER_11_296
*1033 FILLER_11_304
*1034 FILLER_11_312
*1035 FILLER_11_320
*1036 FILLER_11_328
*1037 FILLER_11_336
*1038 FILLER_11_338
*1039 FILLER_11_340
*1040 FILLER_11_348
*1041 FILLER_11_352
*1042 FILLER_12_4
*1043 FILLER_12_12
*1044 FILLER_12_20
*1045 FILLER_12_28
*1046 FILLER_12_31
*1047 FILLER_12_35
*1048 FILLER_12_223
*1049 FILLER_12_231
*1050 FILLER_12_239
*1051 FILLER_12_247
*1052 FILLER_12_250
*1053 FILLER_12_258
*1054 FILLER_12_266
*1055 FILLER_12_274
*1056 FILLER_12_278
*1057 FILLER_12_280
*1058 FILLER_12_288
*1059 FILLER_12_296
*1060 FILLER_12_304
*1061 FILLER_12_308
*1062 FILLER_12_310
*1063 FILLER_12_318
*1064 FILLER_12_326
*1065 FILLER_12_334
*1066 FILLER_12_338
*1067 FILLER_12_340
*1068 FILLER_12_348
*1069 FILLER_12_352
*1070 FILLER_13_4
*1071 FILLER_13_12
*1072 FILLER_13_20
*1073 FILLER_13_28
*1074 FILLER_13_31
*1075 FILLER_13_35
*1076 FILLER_13_80
*1077 FILLER_13_88
*1078 FILLER_13_96
*1079 FILLER_13_104
*1080 FILLER_13_107
*1081 FILLER_13_115
*1082 FILLER_13_123
*1083 FILLER_13_131
*1084 FILLER_13_135
*1085 FILLER_13_137
*1086 FILLER_13_145
*1087 FILLER_13_153
*1088 FILLER_13_161
*1089 FILLER_13_165
*1090 FILLER_13_167
*1091 FILLER_13_175
*1092 FILLER_13_179
*1093 FILLER_13_223
*1094 FILLER_13_231
*1095 FILLER_13_239
*1096 FILLER_13_247
*1097 FILLER_13_250
*1098 FILLER_13_258
*1099 FILLER_13_266
*1100 FILLER_13_274
*1101 FILLER_13_278
*1102 FILLER_13_280
*1103 FILLER_13_288
*1104 FILLER_13_296
*1105 FILLER_13_304
*1106 FILLER_13_308
*1107 FILLER_13_310
*1108 FILLER_13_318
*1109 FILLER_13_326
*1110 FILLER_13_334
*1111 FILLER_13_338
*1112 FILLER_13_340
*1113 FILLER_13_348
*1114 FILLER_13_352
*1115 FILLER_14_4
*1116 FILLER_14_12
*1117 FILLER_14_20
*1118 FILLER_14_28
*1119 FILLER_14_31
*1120 FILLER_14_35
*1121 FILLER_14_80
*1122 FILLER_14_88
*1123 FILLER_14_96
*1124 FILLER_14_104
*1125 FILLER_14_107
*1126 FILLER_14_115
*1127 FILLER_14_123
*1128 FILLER_14_131
*1129 FILLER_14_139
*1130 FILLER_14_147
*1131 FILLER_14_155
*1132 FILLER_14_163
*1133 FILLER_14_165
*1134 FILLER_14_167
*1135 FILLER_14_175
*1136 FILLER_14_179
*1137 FILLER_14_223
*1138 FILLER_14_231
*1139 FILLER_14_239
*1140 FILLER_14_247
*1141 FILLER_14_250
*1142 FILLER_14_258
*1143 FILLER_14_266
*1144 FILLER_14_274
*1145 FILLER_14_282
*1146 FILLER_14_290
*1147 FILLER_14_298
*1148 FILLER_14_306
*1149 FILLER_14_308
*1150 FILLER_14_310
*1151 FILLER_14_318
*1152 FILLER_14_326
*1153 FILLER_14_334
*1154 FILLER_14_342
*1155 FILLER_14_350
*1156 FILLER_15_4
*1157 FILLER_15_12
*1158 FILLER_15_20
*1159 FILLER_15_28
*1160 FILLER_15_80
*1161 FILLER_15_88
*1162 FILLER_15_96
*1163 FILLER_15_104
*1164 FILLER_15_112
*1165 FILLER_15_120
*1166 FILLER_15_128
*1167 FILLER_15_137
*1168 FILLER_15_145
*1169 FILLER_15_153
*1170 FILLER_15_161
*1171 FILLER_15_169
*1172 FILLER_15_177
*1173 FILLER_15_179
*1174 FILLER_15_223
*1175 FILLER_15_231
*1176 FILLER_15_239
*1177 FILLER_15_247
*1178 FILLER_15_255
*1179 FILLER_15_263
*1180 FILLER_15_271
*1181 FILLER_15_280
*1182 FILLER_15_288
*1183 FILLER_15_296
*1184 FILLER_15_304
*1185 FILLER_15_312
*1186 FILLER_15_320
*1187 FILLER_15_328
*1188 FILLER_15_336
*1189 FILLER_15_338
*1190 FILLER_15_340
*1191 FILLER_15_348
*1192 FILLER_15_352
*1193 FILLER_16_4
*1194 FILLER_16_12
*1195 FILLER_16_20
*1196 FILLER_16_28
*1197 FILLER_16_31
*1198 FILLER_16_35
*1199 FILLER_16_80
*1200 FILLER_16_88
*1201 FILLER_16_96
*1202 FILLER_16_104
*1203 FILLER_16_107
*1204 FILLER_16_115
*1205 FILLER_16_123
*1206 FILLER_16_131
*1207 FILLER_16_139
*1208 FILLER_16_147
*1209 FILLER_16_155
*1210 FILLER_16_163
*1211 FILLER_16_165
*1212 FILLER_16_167
*1213 FILLER_16_175
*1214 FILLER_16_179
*1215 FILLER_16_223
*1216 FILLER_16_231
*1217 FILLER_16_239
*1218 FILLER_16_247
*1219 FILLER_16_250
*1220 FILLER_16_258
*1221 FILLER_16_266
*1222 FILLER_16_274
*1223 FILLER_16_282
*1224 FILLER_16_290
*1225 FILLER_16_298
*1226 FILLER_16_306
*1227 FILLER_16_308
*1228 FILLER_16_310
*1229 FILLER_16_318
*1230 FILLER_16_326
*1231 FILLER_16_334
*1232 FILLER_16_342
*1233 FILLER_16_350
*1234 FILLER_17_4
*1235 FILLER_17_12
*1236 FILLER_17_20
*1237 FILLER_17_28
*1238 FILLER_17_80
*1239 FILLER_17_88
*1240 FILLER_17_96
*1241 FILLER_17_104
*1242 FILLER_17_112
*1243 FILLER_17_120
*1244 FILLER_17_128
*1245 FILLER_17_137
*1246 FILLER_17_145
*1247 FILLER_17_153
*1248 FILLER_17_161
*1249 FILLER_17_169
*1250 FILLER_17_177
*1251 FILLER_17_179
*1252 FILLER_17_223
*1253 FILLER_17_231
*1254 FILLER_17_239
*1255 FILLER_17_247
*1256 FILLER_17_255
*1257 FILLER_17_263
*1258 FILLER_17_271
*1259 FILLER_17_280
*1260 FILLER_17_288
*1261 FILLER_17_296
*1262 FILLER_17_304
*1263 FILLER_17_312
*1264 FILLER_17_320
*1265 FILLER_17_328
*1266 FILLER_17_336
*1267 FILLER_17_338
*1268 FILLER_17_340
*1269 FILLER_17_348
*1270 FILLER_17_352
*1271 FILLER_18_4
*1272 FILLER_18_12
*1273 FILLER_18_20
*1274 FILLER_18_28
*1275 FILLER_18_31
*1276 FILLER_18_35
*1277 FILLER_18_80
*1278 FILLER_18_88
*1279 FILLER_18_96
*1280 FILLER_18_104
*1281 FILLER_18_107
*1282 FILLER_18_115
*1283 FILLER_18_123
*1284 FILLER_18_131
*1285 FILLER_18_139
*1286 FILLER_18_147
*1287 FILLER_18_155
*1288 FILLER_18_163
*1289 FILLER_18_165
*1290 FILLER_18_167
*1291 FILLER_18_175
*1292 FILLER_18_179
*1293 FILLER_18_223
*1294 FILLER_18_231
*1295 FILLER_18_239
*1296 FILLER_18_247
*1297 FILLER_18_250
*1298 FILLER_18_258
*1299 FILLER_18_266
*1300 FILLER_18_274
*1301 FILLER_18_282
*1302 FILLER_18_290
*1303 FILLER_18_298
*1304 FILLER_18_306
*1305 FILLER_18_308
*1306 FILLER_18_310
*1307 FILLER_18_318
*1308 FILLER_18_326
*1309 FILLER_18_334
*1310 FILLER_18_342
*1311 FILLER_18_350
*1312 FILLER_19_4
*1313 FILLER_19_12
*1314 FILLER_19_20
*1315 FILLER_19_28
*1316 FILLER_19_80
*1317 FILLER_19_88
*1318 FILLER_19_96
*1319 FILLER_19_104
*1320 FILLER_19_112
*1321 FILLER_19_120
*1322 FILLER_19_128
*1323 FILLER_19_137
*1324 FILLER_19_145
*1325 FILLER_19_153
*1326 FILLER_19_161
*1327 FILLER_19_169
*1328 FILLER_19_177
*1329 FILLER_19_179
*1330 FILLER_19_223
*1331 FILLER_19_231
*1332 FILLER_19_239
*1333 FILLER_19_247
*1334 FILLER_19_255
*1335 FILLER_19_263
*1336 FILLER_19_271
*1337 FILLER_19_280
*1338 FILLER_19_288
*1339 FILLER_19_296
*1340 FILLER_19_304
*1341 FILLER_19_312
*1342 FILLER_19_320
*1343 FILLER_19_328
*1344 FILLER_19_336
*1345 FILLER_19_338
*1346 FILLER_19_340
*1347 FILLER_19_348
*1348 FILLER_19_352
*1349 FILLER_20_4
*1350 FILLER_20_12
*1351 FILLER_20_20
*1352 FILLER_20_28
*1353 FILLER_20_31
*1354 FILLER_20_35
*1355 FILLER_20_80
*1356 FILLER_20_88
*1357 FILLER_20_96
*1358 FILLER_20_104
*1359 FILLER_20_107
*1360 FILLER_20_115
*1361 FILLER_20_123
*1362 FILLER_20_131
*1363 FILLER_20_139
*1364 FILLER_20_147
*1365 FILLER_20_155
*1366 FILLER_20_163
*1367 FILLER_20_165
*1368 FILLER_20_167
*1369 FILLER_20_175
*1370 FILLER_20_179
*1371 FILLER_20_223
*1372 FILLER_20_231
*1373 FILLER_20_239
*1374 FILLER_20_247
*1375 FILLER_20_250
*1376 FILLER_20_258
*1377 FILLER_20_266
*1378 FILLER_20_274
*1379 FILLER_20_282
*1380 FILLER_20_290
*1381 FILLER_20_298
*1382 FILLER_20_306
*1383 FILLER_20_308
*1384 FILLER_20_310
*1385 FILLER_20_318
*1386 FILLER_20_326
*1387 FILLER_20_334
*1388 FILLER_20_342
*1389 FILLER_20_350
*1390 FILLER_21_4
*1391 FILLER_21_12
*1392 FILLER_21_20
*1393 FILLER_21_28
*1394 FILLER_21_80
*1395 FILLER_21_88
*1396 FILLER_21_96
*1397 FILLER_21_104
*1398 FILLER_21_112
*1399 FILLER_21_120
*1400 FILLER_21_128
*1401 FILLER_21_137
*1402 FILLER_21_145
*1403 FILLER_21_153
*1404 FILLER_21_161
*1405 FILLER_21_169
*1406 FILLER_21_177
*1407 FILLER_21_179
*1408 FILLER_21_223
*1409 FILLER_21_231
*1410 FILLER_21_239
*1411 FILLER_21_247
*1412 FILLER_21_255
*1413 FILLER_21_263
*1414 FILLER_21_271
*1415 FILLER_21_280
*1416 FILLER_21_288
*1417 FILLER_21_296
*1418 FILLER_21_304
*1419 FILLER_21_312
*1420 FILLER_21_320
*1421 FILLER_21_328
*1422 FILLER_21_336
*1423 FILLER_21_338
*1424 FILLER_21_340
*1425 FILLER_21_348
*1426 FILLER_21_352
*1427 FILLER_22_4
*1428 FILLER_22_12
*1429 FILLER_22_20
*1430 FILLER_22_28
*1431 FILLER_22_31
*1432 FILLER_22_35
*1433 FILLER_22_80
*1434 FILLER_22_88
*1435 FILLER_22_96
*1436 FILLER_22_104
*1437 FILLER_22_107
*1438 FILLER_22_115
*1439 FILLER_22_123
*1440 FILLER_22_131
*1441 FILLER_22_139
*1442 FILLER_22_147
*1443 FILLER_22_155
*1444 FILLER_22_163
*1445 FILLER_22_165
*1446 FILLER_22_167
*1447 FILLER_22_175
*1448 FILLER_22_179
*1449 FILLER_22_223
*1450 FILLER_22_231
*1451 FILLER_22_239
*1452 FILLER_22_247
*1453 FILLER_22_250
*1454 FILLER_22_258
*1455 FILLER_22_266
*1456 FILLER_22_274
*1457 FILLER_22_282
*1458 FILLER_22_290
*1459 FILLER_22_298
*1460 FILLER_22_306
*1461 FILLER_22_308
*1462 FILLER_22_310
*1463 FILLER_22_318
*1464 FILLER_22_326
*1465 FILLER_22_334
*1466 FILLER_22_342
*1467 FILLER_22_350
*1468 FILLER_23_4
*1469 FILLER_23_12
*1470 FILLER_23_20
*1471 FILLER_23_28
*1472 FILLER_23_80
*1473 FILLER_23_88
*1474 FILLER_23_96
*1475 FILLER_23_104
*1476 FILLER_23_112
*1477 FILLER_23_120
*1478 FILLER_23_128
*1479 FILLER_23_137
*1480 FILLER_23_145
*1481 FILLER_23_153
*1482 FILLER_23_161
*1483 FILLER_23_169
*1484 FILLER_23_177
*1485 FILLER_23_179
*1486 FILLER_23_223
*1487 FILLER_23_231
*1488 FILLER_23_239
*1489 FILLER_23_247
*1490 FILLER_23_255
*1491 FILLER_23_263
*1492 FILLER_23_271
*1493 FILLER_23_280
*1494 FILLER_23_288
*1495 FILLER_23_296
*1496 FILLER_23_304
*1497 FILLER_23_312
*1498 FILLER_23_320
*1499 FILLER_23_328
*1500 FILLER_23_336
*1501 FILLER_23_338
*1502 FILLER_23_340
*1503 FILLER_23_348
*1504 FILLER_23_352
*1505 FILLER_24_4
*1506 FILLER_24_12
*1507 FILLER_24_20
*1508 FILLER_24_28
*1509 FILLER_24_31
*1510 FILLER_24_35
*1511 FILLER_24_80
*1512 FILLER_24_88
*1513 FILLER_24_96
*1514 FILLER_24_104
*1515 FILLER_24_107
*1516 FILLER_24_115
*1517 FILLER_24_123
*1518 FILLER_24_131
*1519 FILLER_24_139
*1520 FILLER_24_147
*1521 FILLER_24_155
*1522 FILLER_24_163
*1523 FILLER_24_165
*1524 FILLER_24_167
*1525 FILLER_24_175
*1526 FILLER_24_179
*1527 FILLER_24_223
*1528 FILLER_24_231
*1529 FILLER_24_239
*1530 FILLER_24_247
*1531 FILLER_24_250
*1532 FILLER_24_258
*1533 FILLER_24_266
*1534 FILLER_24_274
*1535 FILLER_24_282
*1536 FILLER_24_290
*1537 FILLER_24_298
*1538 FILLER_24_306
*1539 FILLER_24_308
*1540 FILLER_24_310
*1541 FILLER_24_318
*1542 FILLER_24_326
*1543 FILLER_24_334
*1544 FILLER_24_342
*1545 FILLER_24_350
*1546 FILLER_25_4
*1547 FILLER_25_12
*1548 FILLER_25_20
*1549 FILLER_25_28
*1550 FILLER_25_80
*1551 FILLER_25_88
*1552 FILLER_25_96
*1553 FILLER_25_104
*1554 FILLER_25_112
*1555 FILLER_25_120
*1556 FILLER_25_128
*1557 FILLER_25_137
*1558 FILLER_25_145
*1559 FILLER_25_153
*1560 FILLER_25_161
*1561 FILLER_25_169
*1562 FILLER_25_177
*1563 FILLER_25_179
*1564 FILLER_25_223
*1565 FILLER_25_231
*1566 FILLER_25_239
*1567 FILLER_25_247
*1568 FILLER_25_255
*1569 FILLER_25_263
*1570 FILLER_25_271
*1571 FILLER_25_280
*1572 FILLER_25_288
*1573 FILLER_25_296
*1574 FILLER_25_304
*1575 FILLER_25_312
*1576 FILLER_25_320
*1577 FILLER_25_328
*1578 FILLER_25_336
*1579 FILLER_25_338
*1580 FILLER_25_340
*1581 FILLER_25_348
*1582 FILLER_25_352
*1583 FILLER_26_4
*1584 FILLER_26_12
*1585 FILLER_26_20
*1586 FILLER_26_28
*1587 FILLER_26_31
*1588 FILLER_26_35
*1589 FILLER_26_80
*1590 FILLER_26_88
*1591 FILLER_26_96
*1592 FILLER_26_104
*1593 FILLER_26_107
*1594 FILLER_26_115
*1595 FILLER_26_123
*1596 FILLER_26_131
*1597 FILLER_26_139
*1598 FILLER_26_147
*1599 FILLER_26_155
*1600 FILLER_26_163
*1601 FILLER_26_165
*1602 FILLER_26_167
*1603 FILLER_26_175
*1604 FILLER_26_179
*1605 FILLER_26_223
*1606 FILLER_26_231
*1607 FILLER_26_239
*1608 FILLER_26_247
*1609 FILLER_26_250
*1610 FILLER_26_258
*1611 FILLER_26_266
*1612 FILLER_26_274
*1613 FILLER_26_282
*1614 FILLER_26_290
*1615 FILLER_26_298
*1616 FILLER_26_306
*1617 FILLER_26_308
*1618 FILLER_26_310
*1619 FILLER_26_318
*1620 FILLER_26_326
*1621 FILLER_26_334
*1622 FILLER_26_342
*1623 FILLER_26_350
*1624 FILLER_27_4
*1625 FILLER_27_12
*1626 FILLER_27_20
*1627 FILLER_27_28
*1628 FILLER_27_80
*1629 FILLER_27_88
*1630 FILLER_27_96
*1631 FILLER_27_104
*1632 FILLER_27_112
*1633 FILLER_27_120
*1634 FILLER_27_128
*1635 FILLER_27_137
*1636 FILLER_27_145
*1637 FILLER_27_153
*1638 FILLER_27_161
*1639 FILLER_27_169
*1640 FILLER_27_177
*1641 FILLER_27_179
*1642 FILLER_27_223
*1643 FILLER_27_231
*1644 FILLER_27_239
*1645 FILLER_27_247
*1646 FILLER_27_255
*1647 FILLER_27_263
*1648 FILLER_27_271
*1649 FILLER_27_280
*1650 FILLER_27_288
*1651 FILLER_27_296
*1652 FILLER_27_304
*1653 FILLER_27_312
*1654 FILLER_27_320
*1655 FILLER_27_328
*1656 FILLER_27_336
*1657 FILLER_27_338
*1658 FILLER_27_340
*1659 FILLER_27_348
*1660 FILLER_27_352
*1661 FILLER_28_4
*1662 FILLER_28_12
*1663 FILLER_28_20
*1664 FILLER_28_28
*1665 FILLER_28_31
*1666 FILLER_28_35
*1667 FILLER_28_80
*1668 FILLER_28_88
*1669 FILLER_28_96
*1670 FILLER_28_104
*1671 FILLER_28_107
*1672 FILLER_28_115
*1673 FILLER_28_123
*1674 FILLER_28_131
*1675 FILLER_28_139
*1676 FILLER_28_147
*1677 FILLER_28_155
*1678 FILLER_28_163
*1679 FILLER_28_165
*1680 FILLER_28_167
*1681 FILLER_28_175
*1682 FILLER_28_179
*1683 FILLER_28_223
*1684 FILLER_28_231
*1685 FILLER_28_239
*1686 FILLER_28_247
*1687 FILLER_28_250
*1688 FILLER_28_258
*1689 FILLER_28_266
*1690 FILLER_28_274
*1691 FILLER_28_282
*1692 FILLER_28_290
*1693 FILLER_28_298
*1694 FILLER_28_306
*1695 FILLER_28_308
*1696 FILLER_28_310
*1697 FILLER_28_318
*1698 FILLER_28_326
*1699 FILLER_28_334
*1700 FILLER_28_342
*1701 FILLER_28_350
*1702 FILLER_29_4
*1703 FILLER_29_12
*1704 FILLER_29_20
*1705 FILLER_29_28
*1706 FILLER_29_80
*1707 FILLER_29_88
*1708 FILLER_29_96
*1709 FILLER_29_104
*1710 FILLER_29_112
*1711 FILLER_29_120
*1712 FILLER_29_128
*1713 FILLER_29_137
*1714 FILLER_29_145
*1715 FILLER_29_153
*1716 FILLER_29_161
*1717 FILLER_29_169
*1718 FILLER_29_177
*1719 FILLER_29_179
*1720 FILLER_29_223
*1721 FILLER_29_231
*1722 FILLER_29_239
*1723 FILLER_29_247
*1724 FILLER_29_255
*1725 FILLER_29_263
*1726 FILLER_29_271
*1727 FILLER_29_280
*1728 FILLER_29_288
*1729 FILLER_29_296
*1730 FILLER_29_304
*1731 FILLER_29_312
*1732 FILLER_29_320
*1733 FILLER_29_328
*1734 FILLER_29_336
*1735 FILLER_29_338
*1736 FILLER_29_340
*1737 FILLER_29_348
*1738 FILLER_29_352
*1739 FILLER_30_4
*1740 FILLER_30_12
*1741 FILLER_30_20
*1742 FILLER_30_28
*1743 FILLER_30_31
*1744 FILLER_30_35
*1745 FILLER_30_80
*1746 FILLER_30_88
*1747 FILLER_30_96
*1748 FILLER_30_104
*1749 FILLER_30_107
*1750 FILLER_30_115
*1751 FILLER_30_123
*1752 FILLER_30_131
*1753 FILLER_30_139